# ----- Rotor performance tables for the OpenFAST_5MW wind turbine ----- 
# ------------ Written on Nov-20-19 using the ROSCO toolbox ------------ 

# Pitch angle vector - x axis (matrix columns) (deg)
-1.0   -0.75   -0.5   -0.25   0.0   0.25   0.5   0.75   1.0   1.25   1.5   1.75   2.0   2.25   2.5   2.75   3.0   3.25   3.5   3.75   4.0   4.25   4.5   4.75   5.0   5.25   5.5   5.75   6.0   6.25   6.5   6.75   7.0   7.25   7.5   7.75   8.0   8.25   8.5   8.75   9.0   9.25   9.5   9.75   10.0   10.25   10.5   10.75   11.0   11.25   11.5   11.75   12.0   12.25   12.5   12.75   13.0   13.25   13.5   13.75   14.0   14.25   14.5   14.75   15.0   15.25   15.5   15.75   16.0   16.25   16.5   16.75   17.0   17.25   17.5   17.75   18.0   18.25   18.5   18.75   19.0   19.25   19.5   19.75   20.0   20.25   20.5   20.75   21.0   21.25   21.5   21.75   22.0   22.25   22.5   22.75   23.0   23.25   23.5   23.75   24.0   24.25   24.5   24.75   
# TSR vector - y axis (matrix rows) (-)
3.0    3.25    3.5    3.75    4.0    4.25    4.5    4.75    5.0    5.25    5.5    5.75    6.0    6.25    6.5    6.75    7.0    7.25    7.5    7.75    8.0    8.25    8.5    8.75    9.0    9.25    9.5    9.75    10.0    10.25    10.5    10.75    11.0    11.25    11.5    11.75    12.0    12.25    12.5    12.75    13.0    13.25    13.5    13.75    14.0    14.25    14.5    14.75    
# Wind speed vector - z axis (m/s)
11.4    

# Power coefficient

0.089542   0.091978   0.094392   0.096781   0.099145   0.101481   0.103788   0.106064   0.108307   0.110515   0.112687   0.114820   0.116914   0.118965   0.120973   0.122935   0.124849   0.126714   0.128528   0.130288   0.131993   0.133642   0.135232   0.136761   0.138228   0.139632   0.140970   0.142241   0.143444   0.144578   0.145640   0.146631   0.147549   0.148393   0.149163   0.149857   0.150476   0.151020   0.151487   0.151879   0.152194   0.152434   0.152598   0.152686   0.152699   0.152638   0.152501   0.152290   0.152006   0.151647   0.151216   0.150711   0.150134   0.149485   0.148764   0.147972   0.147107   0.146171   0.145164   0.144086   0.142938   0.141719   0.140429   0.139070   0.137641   0.136142   0.134574   0.132937   0.131231   0.129457   0.127615   0.125707   0.123732   0.121691   0.119585   0.117416   0.115183   0.112887   0.110531   0.108115   0.105640   0.103106   0.100516   0.097871   0.095171   0.092418   0.089613   0.086758   0.083855   0.080904   0.077908   0.074868   0.071786   0.068663   0.065501   0.062302   0.059069   0.055802   0.052505   0.049179   0.045826   0.042449   0.039049   0.035630   
0.114397   0.117148   0.119861   0.122534   0.125164   0.127749   0.130287   0.132775   0.135212   0.137595   0.139922   0.142190   0.144397   0.146541   0.148619   0.150629   0.152569   0.154437   0.156230   0.157946   0.159583   0.161139   0.162613   0.164002   0.165306   0.166523   0.167650   0.168689   0.169637   0.170494   0.171260   0.171934   0.172517   0.173007   0.173406   0.173712   0.173928   0.174053   0.174086   0.174030   0.173884   0.173649   0.173325   0.172912   0.172411   0.171822   0.171145   0.170381   0.169529   0.168589   0.167562   0.166449   0.165248   0.163960   0.162586   0.161126   0.159579   0.157947   0.156229   0.154426   0.152539   0.150568   0.148515   0.146379   0.144162   0.141865   0.139488   0.137035   0.134504   0.131899   0.129221   0.126470   0.123649   0.120759   0.117801   0.114778   0.111691   0.108542   0.105332   0.102064   0.098739   0.095358   0.091925   0.088439   0.084904   0.081320   0.077691   0.074018   0.070303   0.066548   0.062755   0.058926   0.055063   0.051169   0.047247   0.043298   0.039327   0.035335   0.031325   0.027300   0.023263   0.019216   0.015164   0.011108   
0.141508   0.144534   0.147502   0.150409   0.153253   0.156031   0.158739   0.161374   0.163935   0.166418   0.168819   0.171136   0.173367   0.175508   0.177556   0.179510   0.181366   0.183123   0.184778   0.186329   0.187775   0.189115   0.190347   0.191471   0.192486   0.193391   0.194187   0.194872   0.195448   0.195914   0.196272   0.196520   0.196661   0.196694   0.196620   0.196440   0.196153   0.195760   0.195261   0.194656   0.193945   0.193129   0.192207   0.191178   0.190044   0.188805   0.187459   0.186008   0.184452   0.182792   0.181026   0.179157   0.177184   0.175109   0.172932   0.170654   0.168276   0.165801   0.163230   0.160564   0.157805   0.154955   0.152016   0.148990   0.145879   0.142685   0.139411   0.136059   0.132631   0.129129   0.125555   0.121912   0.118202   0.114427   0.110588   0.106689   0.102731   0.098716   0.094646   0.090523   0.086349   0.082125   0.077855   0.073539   0.069180   0.064781   0.060344   0.055871   0.051364   0.046828   0.042264   0.037676   0.033067   0.028439   0.023797   0.019144   0.014484   0.009819   0.005153   0.000490   -0.004168   -0.008817   -0.013456   -0.018082   
0.170562   0.173812   0.176980   0.180062   0.183053   0.185951   0.188751   0.191450   0.194044   0.196530   0.198904   0.201164   0.203306   0.205328   0.207228   0.209004   0.210654   0.212177   0.213571   0.214836   0.215972   0.216978   0.217854   0.218600   0.219217   0.219706   0.220067   0.220300   0.220407   0.220387   0.220240   0.219967   0.219567   0.219041   0.218388   0.217609   0.216702   0.215669   0.214508   0.213220   0.211805   0.210263   0.208594   0.206799   0.204879   0.202834   0.200664   0.198372   0.195958   0.193424   0.190772   0.188003   0.185122   0.182128   0.179026   0.175817   0.172505   0.169093   0.165583   0.161978   0.158282   0.154497   0.150625   0.146670   0.142635   0.138522   0.134333   0.130072   0.125741   0.121341   0.116877   0.112348   0.107758   0.103108   0.098400   0.093637   0.088820   0.083950   0.079032   0.074066   0.069054   0.064000   0.058906   0.053775   0.048609   0.043411   0.038186   0.032936   0.027665   0.022377   0.017075   0.011765   0.006449   0.001133   -0.004180   -0.009486   -0.014781   -0.020063   -0.025329   -0.030575   -0.035800   -0.041002   -0.046179   -0.051332   
0.201243   0.204649   0.207940   0.211111   0.214159   0.217079   0.219868   0.222521   0.225035   0.227408   0.229637   0.231719   0.233653   0.235437   0.237070   0.238552   0.239881   0.241059   0.242085   0.242960   0.243684   0.244258   0.244683   0.244958   0.245083   0.245060   0.244887   0.244563   0.244090   0.243466   0.242691   0.241765   0.240688   0.239459   0.238079   0.236548   0.234865   0.233033   0.231051   0.228920   0.226641   0.224216   0.221647   0.218936   0.216085   0.213097   0.209975   0.206722   0.203342   0.199837   0.196213   0.192471   0.188617   0.184653   0.180584   0.176413   0.172143   0.167779   0.163323   0.158778   0.154149   0.149437   0.144645   0.139777   0.134834   0.129820   0.124736   0.119585   0.114368   0.109088   0.103747   0.098345   0.092885   0.087369   0.081799   0.076177   0.070506   0.064787   0.059025   0.053222   0.047380   0.041503   0.035595   0.029660   0.023700   0.017722   0.011729   0.005726   -0.000282   -0.006290   -0.012293   -0.018286   -0.024265   -0.030226   -0.036166   -0.042081   -0.047970   -0.053830   -0.059659   -0.065457   -0.071224   -0.076959   -0.082665   -0.088343   
0.233147   0.236609   0.239919   0.243072   0.246064   0.248892   0.251553   0.254044   0.256362   0.258506   0.260475   0.262268   0.263884   0.265324   0.266588   0.267676   0.268589   0.269326   0.269889   0.270277   0.270489   0.270525   0.270385   0.270068   0.269573   0.268901   0.268051   0.267022   0.265815   0.264429   0.262866   0.261125   0.259208   0.257115   0.254848   0.252409   0.249800   0.247023   0.244081   0.240978   0.237717   0.234302   0.230739   0.227029   0.223179   0.219192   0.215074   0.210828   0.206459   0.201972   0.197372   0.192661   0.187845   0.182928   0.177912   0.172801   0.167599   0.162308   0.156933   0.151476   0.145939   0.140325   0.134637   0.128877   0.123046   0.117145   0.111178   0.105145   0.099048   0.092889   0.086669   0.080391   0.074058   0.067671   0.061233   0.054747   0.048216   0.041644   0.035034   0.028390   0.021717   0.015020   0.008302   0.001571   -0.005169   -0.011911   -0.018650   -0.025379   -0.032093   -0.038787   -0.045457   -0.052098   -0.058708   -0.065284   -0.071823   -0.078325   -0.084789   -0.091215   -0.097605   -0.103960   -0.110283   -0.116580   -0.122855   -0.129115   
0.265760   0.269168   0.272384   0.275405   0.278228   0.280851   0.283273   0.285491   0.287506   0.289317   0.290924   0.292327   0.293526   0.294522   0.295314   0.295901   0.296282   0.296459   0.296428   0.296191   0.295747   0.295094   0.294234   0.293166   0.291890   0.290408   0.288718   0.286824   0.284726   0.282426   0.279927   0.277232   0.274343   0.271265   0.268002   0.264559   0.260940   0.257151   0.253195   0.249079   0.244808   0.240388   0.235823   0.231119   0.226282   0.221315   0.216225   0.211016   0.205692   0.200258   0.194717   0.189073   0.183330   0.177492   0.171561   0.165541   0.159435   0.153245   0.146973   0.140623   0.134195   0.127692   0.121115   0.114465   0.107744   0.100953   0.094093   0.087166   0.080174   0.073120   0.066005   0.058833   0.051607   0.044330   0.037005   0.029637   0.022230   0.014790   0.007321   -0.000171   -0.007678   -0.015195   -0.022714   -0.030228   -0.037731   -0.045214   -0.052673   -0.060101   -0.067495   -0.074851   -0.082166   -0.089438   -0.096665   -0.103846   -0.110984   -0.118078   -0.125132   -0.132151   -0.139140   -0.146106   -0.153057   -0.160002   -0.166950   -0.173909   
0.298526   0.301768   0.304778   0.307556   0.310100   0.312410   0.314484   0.316322   0.317925   0.319291   0.320421   0.321314   0.321969   0.322385   0.322562   0.322500   0.322198   0.321657   0.320875   0.319855   0.318595   0.317098   0.315365   0.313398   0.311200   0.308773   0.306120   0.303247   0.300158   0.296858   0.293351   0.289643   0.285741   0.281650   0.277376   0.272926   0.268304   0.263518   0.258573   0.253476   0.248231   0.242844   0.237321   0.231668   0.225888   0.219987   0.213968   0.207837   0.201596   0.195250   0.188802   0.182255   0.175613   0.168878   0.162054   0.155142   0.148146   0.141065   0.133902   0.126658   0.119333   0.111929   0.104446   0.096886   0.089250   0.081540   0.073758   0.065907   0.057989   0.050007   0.041965   0.033867   0.025717   0.017521   0.009284   0.001011   -0.007291   -0.015613   -0.023949   -0.032290   -0.040627   -0.048953   -0.057259   -0.065537   -0.073781   -0.081986   -0.090146   -0.098259   -0.106322   -0.114333   -0.122291   -0.130197   -0.138053   -0.145862   -0.153628   -0.161360   -0.169065   -0.176754   -0.184436   -0.192125   -0.199829   -0.207561   -0.215328   -0.223138   
0.330815   0.333771   0.336457   0.338872   0.341015   0.342887   0.344487   0.345814   0.346868   0.347649   0.348156   0.348389   0.348348   0.348033   0.347445   0.346584   0.345453   0.344052   0.342386   0.340455   0.338265   0.335819   0.333121   0.330178   0.326993   0.323573   0.319925   0.316055   0.311969   0.307675   0.303180   0.298488   0.293608   0.288545   0.283307   0.277899   0.272327   0.266598   0.260718   0.254692   0.248524   0.242221   0.235787   0.229227   0.222544   0.215744   0.208829   0.201805   0.194673   0.187438   0.180102   0.172669   0.165139   0.157516   0.149800   0.141992   0.134094   0.126105   0.118028   0.109861   0.101606   0.093264   0.084836   0.076325   0.067731   0.059060   0.050312   0.041493   0.032606   0.023655   0.014647   0.005587   -0.003518   -0.012662   -0.021836   -0.031031   -0.040238   -0.049446   -0.058646   -0.067829   -0.076985   -0.086105   -0.095183   -0.104212   -0.113188   -0.122107   -0.130967   -0.139766   -0.148505   -0.157185   -0.165809   -0.174383   -0.182913   -0.191409   -0.199884   -0.208349   -0.216818   -0.225306   -0.233824   -0.242386   -0.251003   -0.259680   -0.268425   -0.277239   
0.361791   0.364325   0.366551   0.368469   0.370077   0.371374   0.372361   0.373037   0.373403   0.373460   0.373209   0.372652   0.371790   0.370628   0.369168   0.367414   0.365371   0.363044   0.360438   0.357559   0.354413   0.351008   0.347350   0.343446   0.339305   0.334932   0.330336   0.325522   0.320499   0.315273   0.309851   0.304239   0.298444   0.292473   0.286330   0.280023   0.273556   0.266936   0.260167   0.253255   0.246205   0.239021   0.231708   0.224270   0.216710   0.209032   0.201240   0.193336   0.185322   0.177202   0.168978   0.160649   0.152218   0.143685   0.135051   0.126315   0.117478   0.108540   0.099502   0.090364   0.081129   0.071797   0.062372   0.052856   0.043254   0.033570   0.023807   0.013972   0.004071   -0.005890   -0.015902   -0.025957   -0.036045   -0.046157   -0.056280   -0.066403   -0.076516   -0.086607   -0.096665   -0.106681   -0.116646   -0.126554   -0.136400   -0.146180   -0.155891   -0.165534   -0.175108   -0.184616   -0.194062   -0.203454   -0.212800   -0.222114   -0.231410   -0.240704   -0.250012   -0.259351   -0.268736   -0.278181   -0.287699   -0.297299   -0.306987   -0.316766   -0.326639   -0.336604   
0.390409   0.392401   0.394045   0.395343   0.396296   0.396905   0.397170   0.397094   0.396680   0.395932   0.394854   0.393451   0.391729   0.389693   0.387349   0.384705   0.381766   0.378541   0.375036   0.371259   0.367218   0.362920   0.358374   0.353586   0.348565   0.343316   0.337847   0.332165   0.326276   0.320187   0.313904   0.307434   0.300782   0.293953   0.286955   0.279792   0.272471   0.264995   0.257371   0.249602   0.241693   0.233649   0.225472   0.217166   0.208734   0.200180   0.191506   0.182713   0.173803   0.164778   0.155638   0.146382   0.137012   0.127526   0.117926   0.108210   0.098379   0.088435   0.078378   0.068210   0.057934   0.047555   0.037075   0.026499   0.015833   0.005083   -0.005745   -0.016642   -0.027599   -0.038606   -0.049652   -0.060725   -0.071812   -0.082901   -0.093979   -0.105033   -0.116050   -0.127019   -0.137931   -0.148778   -0.159554   -0.170255   -0.180879   -0.191425   -0.201893   -0.212286   -0.222612   -0.232877   -0.243094   -0.253279   -0.263449   -0.273622   -0.283817   -0.294055   -0.304352   -0.314726   -0.325193   -0.335763   -0.346445   -0.357241   -0.368156   -0.379187   -0.390331   -0.401580   
0.415624   0.416992   0.417984   0.418603   0.418851   0.418733   0.418256   0.417422   0.416236   0.414706   0.412838   0.410638   0.408113   0.405271   0.402120   0.398667   0.394921   0.390889   0.386580   0.382001   0.377159   0.372061   0.366715   0.361128   0.355307   0.349257   0.342986   0.336501   0.329807   0.322911   0.315818   0.308534   0.301064   0.293416   0.285594   0.277603   0.269449   0.261136   0.252670   0.244053   0.235289   0.226383   0.217337   0.208155   0.198838   0.189389   0.179809   0.170098   0.160257   0.150285   0.140183   0.129949   0.119584   0.109088   0.098460   0.087702   0.076814   0.065798   0.054658   0.043397   0.032020   0.020531   0.008937   -0.002756   -0.014540   -0.026407   -0.038345   -0.050344   -0.062390   -0.074471   -0.086571   -0.098677   -0.110775   -0.122848   -0.134885   -0.146870   -0.158793   -0.170643   -0.182414   -0.194102   -0.205703   -0.217216   -0.228641   -0.239984   -0.251249   -0.262446   -0.273591   -0.284700   -0.295795   -0.306895   -0.318024   -0.329204   -0.340455   -0.351799   -0.363254   -0.374835   -0.386551   -0.398410   -0.410413   -0.422562   -0.434852   -0.447275   -0.459820   -0.472468   
0.436626   0.437393   0.437770   0.437761   0.437374   0.436613   0.435482   0.433988   0.432138   0.429936   0.427390   0.424508   0.421299   0.417769   0.413928   0.409783   0.405342   0.400612   0.395600   0.390314   0.384761   0.378947   0.372880   0.366565   0.360010   0.353220   0.346202   0.338961   0.331504   0.323836   0.315963   0.307892   0.299627   0.291176   0.282543   0.273733   0.264751   0.255601   0.246288   0.236814   0.227184   0.217400   0.207465   0.197381   0.187149   0.176769   0.166241   0.155564   0.144739   0.133765   0.122641   0.111367   0.099943   0.088370   0.076648   0.064779   0.052767   0.040614   0.028325   0.015907   0.003364   -0.009295   -0.022062   -0.034927   -0.047880   -0.060907   -0.073994   -0.087126   -0.100287   -0.113462   -0.126634   -0.139787   -0.152904   -0.165970   -0.178971   -0.191893   -0.204730   -0.217474   -0.230122   -0.242672   -0.255123   -0.267480   -0.279750   -0.291942   -0.304072   -0.316162   -0.328233   -0.340310   -0.352418   -0.364580   -0.376824   -0.389173   -0.401649   -0.414272   -0.427058   -0.440013   -0.453144   -0.466451   -0.479933   -0.493582   -0.507386   -0.521327   -0.535379   -0.549507   
0.453113   0.453439   0.453362   0.452886   0.452021   0.450771   0.449146   0.447146   0.444780   0.442057   0.438980   0.435558   0.431798   0.427709   0.423298   0.418572   0.413540   0.408208   0.402583   0.396672   0.390481   0.384018   0.377288   0.370299   0.363055   0.355563   0.347829   0.339859   0.331660   0.323238   0.314599   0.305751   0.296697   0.287445   0.278000   0.268365   0.258545   0.248545   0.238367   0.228016   0.217494   0.206803   0.195944   0.184918   0.173724   0.162362   0.150830   0.139130   0.127259   0.115218   0.103007   0.090625   0.078074   0.065353   0.052467   0.039418   0.026211   0.012853   -0.000651   -0.014292   -0.028063   -0.041951   -0.055947   -0.070034   -0.084199   -0.098423   -0.112690   -0.126983   -0.141283   -0.155572   -0.169832   -0.184044   -0.198191   -0.212259   -0.226233   -0.240108   -0.253878   -0.267539   -0.281090   -0.294535   -0.307878   -0.321132   -0.334312   -0.347440   -0.360542   -0.373645   -0.386777   -0.399965   -0.413237   -0.426623   -0.440149   -0.453841   -0.467719   -0.481797   -0.496082   -0.510579   -0.525288   -0.540202   -0.555312   -0.570599   -0.586038   -0.601592   -0.617218   -0.632873   
0.465313   0.465403   0.465083   0.464351   0.463208   0.461660   0.459716   0.457384   0.454670   0.451577   0.448116   0.444289   0.440105   0.435571   0.430695   0.425484   0.419947   0.414089   0.407918   0.401442   0.394666   0.387597   0.380243   0.372608   0.364700   0.356526   0.348093   0.339406   0.330475   0.321304   0.311902   0.302275   0.292427   0.282365   0.272093   0.261616   0.250937   0.240062   0.228993   0.217732   0.206282   0.194642   0.182812   0.170791   0.158579   0.146175   0.133579   0.120790   0.107808   0.094632   0.081262   0.067700   0.053947   0.040006   0.025883   0.011583   -0.002888   -0.017521   -0.032308   -0.047237   -0.062296   -0.077471   -0.092743   -0.108095   -0.123509   -0.138964   -0.154441   -0.169921   -0.185382   -0.200804   -0.216167   -0.231451   -0.246641   -0.261724   -0.276694   -0.291546   -0.306276   -0.320885   -0.335380   -0.349769   -0.364067   -0.378298   -0.392490   -0.406673   -0.420877   -0.435133   -0.449473   -0.463928   -0.478531   -0.493313   -0.508301   -0.523517   -0.538975   -0.554680   -0.570636   -0.586843   -0.603289   -0.619961   -0.636835   -0.653873   -0.671032   -0.688261   -0.705510   -0.722735   
0.473702   0.473766   0.473407   0.472622   0.471409   0.469763   0.467687   0.465190   0.462279   0.458962   0.455242   0.451127   0.446623   0.441737   0.436478   0.430855   0.424876   0.418548   0.411880   0.404878   0.397550   0.389903   0.381945   0.373683   0.365125   0.356278   0.347151   0.337751   0.328086   0.318163   0.307990   0.297572   0.286914   0.276023   0.264903   0.253559   0.241994   0.230212   0.218215   0.206004   0.193578   0.180937   0.168079   0.155005   0.141713   0.128203   0.114475   0.100527   0.086361   0.071976   0.057373   0.042554   0.027524   0.012289   -0.003145   -0.018770   -0.034577   -0.050554   -0.066690   -0.082968   -0.099372   -0.115880   -0.132472   -0.149128   -0.165826   -0.182545   -0.199261   -0.215953   -0.232596   -0.249169   -0.265651   -0.282023   -0.298275   -0.314400   -0.330394   -0.346252   -0.361980   -0.377584   -0.393079   -0.408486   -0.423834   -0.439157   -0.454487   -0.469859   -0.485308   -0.500868   -0.516577   -0.532470   -0.548583   -0.564946   -0.581581   -0.598503   -0.615716   -0.633224   -0.651023   -0.669100   -0.687436   -0.705999   -0.724742   -0.743612   -0.762554   -0.781513   -0.800441   -0.819290   
0.478834   0.479057   0.478849   0.478195   0.477083   0.475509   0.473468   0.470955   0.467980   0.464554   0.460684   0.456374   0.451635   0.446473   0.440897   0.434918   0.428546   0.421788   0.414655   0.407154   0.399295   0.391086   0.382537   0.373656   0.364452   0.354934   0.345112   0.334994   0.324588   0.313902   0.302942   0.291715   0.280226   0.268483   0.256488   0.244246   0.231761   0.219032   0.206062   0.192848   0.179391   0.165689   0.151742   0.137549   0.123110   0.108424   0.093491   0.078311   0.062884   0.047211   0.031296   0.015143   -0.001240   -0.017846   -0.034667   -0.051690   -0.068904   -0.086293   -0.103839   -0.121521   -0.139317   -0.157203   -0.175158   -0.193156   -0.211174   -0.229188   -0.247171   -0.265098   -0.282944   -0.300686   -0.318305   -0.335790   -0.353134   -0.370332   -0.387382   -0.404291   -0.421069   -0.437735   -0.454315   -0.470846   -0.487365   -0.503908   -0.520514   -0.537222   -0.554071   -0.571102   -0.588356   -0.605872   -0.623684   -0.641816   -0.660282   -0.679088   -0.698237   -0.717722   -0.737528   -0.757629   -0.777984   -0.798539   -0.819233   -0.840006   -0.860798   -0.881555   -0.902228   -0.922774   
0.481264   0.481788   0.481864   0.481474   0.480602   0.479229   0.477348   0.474950   0.472030   0.468599   0.464668   0.460247   0.455343   0.449966   0.444126   0.437835   0.431104   0.423946   0.416370   0.408389   0.400012   0.391251   0.382117   0.372619   0.362770   0.352578   0.342055   0.331210   0.320051   0.308585   0.296820   0.284762   0.272418   0.259793   0.246890   0.233713   0.220262   0.206537   0.192538   0.178263   0.163713   0.148886   0.133782   0.118401   0.102743   0.086806   0.070591   0.054099   0.037330   0.020290   0.002983   -0.014582   -0.032397   -0.050452   -0.068734   -0.087228   -0.105917   -0.124779   -0.143790   -0.162925   -0.182161   -0.201470   -0.220828   -0.240206   -0.259579   -0.278918   -0.298194   -0.317379   -0.336449   -0.355382   -0.374167   -0.392797   -0.411267   -0.429576   -0.447734   -0.465751   -0.483653   -0.501475   -0.519255   -0.537035   -0.554857   -0.572762   -0.590794   -0.608997   -0.627416   -0.646097   -0.665084   -0.684415   -0.704118   -0.724206   -0.744686   -0.765561   -0.786823   -0.808453   -0.830420   -0.852673   -0.875150   -0.897784   -0.920510   -0.943263   -0.965983   -0.988616   -1.011116   -1.033443   
0.481400   0.482340   0.482811   0.482786   0.482247   0.481177   0.479557   0.477370   0.474610   0.471268   0.467357   0.462894   0.457885   0.452345   0.446283   0.439715   0.432655   0.425118   0.417118   0.408670   0.399785   0.390478   0.380762   0.370649   0.360152   0.349281   0.338048   0.326463   0.314533   0.302267   0.289673   0.276758   0.263527   0.249984   0.236132   0.221971   0.207501   0.192722   0.177633   0.162234   0.146524   0.130503   0.114172   0.097528   0.080574   0.063307   0.045729   0.027843   0.009651   -0.008838   -0.027616   -0.046675   -0.066001   -0.085581   -0.105397   -0.125430   -0.145655   -0.166045   -0.186573   -0.207213   -0.227935   -0.248712   -0.269513   -0.290309   -0.311070   -0.331762   -0.352357   -0.372825   -0.393144   -0.413301   -0.433289   -0.453102   -0.472740   -0.492215   -0.511542   -0.530750   -0.549880   -0.568977   -0.588084   -0.607248   -0.626515   -0.645934   -0.665554   -0.685424   -0.705596   -0.726118   -0.747035   -0.768376   -0.790159   -0.812391   -0.835075   -0.858201   -0.881748   -0.905679   -0.929935   -0.954445   -0.979139   -1.003945   -1.028791   -1.053611   -1.078346   -1.102945   -1.127364   -1.151562   
0.479581   0.481001   0.481945   0.482377   0.482254   0.481557   0.480271   0.478375   0.475847   0.472678   0.468862   0.464415   0.459356   0.453696   0.447451   0.440638   0.433275   0.425381   0.416973   0.408070   0.398687   0.388839   0.378543   0.367812   0.356661   0.345101   0.333144   0.320800   0.308078   0.294988   0.281537   0.267731   0.253574   0.239068   0.224215   0.209015   0.193467   0.177571   0.161327   0.144736   0.127797   0.110510   0.092875   0.074892   0.056560   0.037882   0.018858   -0.000506   -0.020203   -0.040223   -0.060555   -0.081187   -0.102102   -0.123281   -0.144701   -0.166335   -0.188153   -0.210126   -0.232225   -0.254418   -0.276674   -0.298962   -0.321247   -0.343497   -0.365678   -0.387754   -0.409695   -0.431476   -0.453080   -0.474501   -0.495732   -0.516775   -0.537641   -0.558349   -0.578934   -0.599442   -0.619921   -0.640420   -0.660990   -0.681683   -0.702551   -0.723648   -0.745029   -0.766751   -0.788870   -0.811433   -0.834477   -0.858023   -0.882078   -0.906648   -0.931722   -0.957274   -0.983265   -1.009627   -1.036283   -1.063156   -1.090169   -1.117243   -1.144305   -1.171288   -1.198136   -1.224800   -1.251236   -1.277409   
0.476095   0.478040   0.479491   0.480423   0.480789   0.480536   0.479638   0.478083   0.475850   0.472912   0.469260   0.464891   0.459829   0.454095   0.447704   0.440677   0.433036   0.424805   0.416005   0.406657   0.396781   0.386395   0.375517   0.364163   0.352347   0.340084   0.327384   0.314259   0.300720   0.286774   0.272429   0.257690   0.242560   0.227039   0.211128   0.194828   0.178139   0.161061   0.143596   0.125742   0.107500   0.088870   0.069853   0.050448   0.030657   0.010481   -0.010073   -0.030998   -0.052283   -0.073917   -0.095885   -0.118169   -0.140748   -0.163596   -0.186682   -0.209977   -0.233446   -0.257059   -0.280781   -0.304578   -0.328416   -0.352258   -0.376069   -0.399810   -0.423444   -0.446936   -0.470257   -0.493388   -0.516321   -0.539050   -0.561574   -0.583909   -0.606074   -0.628109   -0.650065   -0.671994   -0.693952   -0.715992   -0.738171   -0.760548   -0.783182   -0.806132   -0.829461   -0.853231   -0.877497   -0.902303   -0.927672   -0.953617   -0.980144   -1.007241   -1.034884   -1.063026   -1.091595   -1.120507   -1.149679   -1.179026   -1.208463   -1.237909   -1.267289   -1.296539   -1.325606   -1.354440   -1.383003   -1.411266   
0.471215   0.473668   0.475655   0.477105   0.477980   0.478226   0.477777   0.476607   0.474709   0.472053   0.468617   0.464388   0.459375   0.453608   0.447107   0.439897   0.432002   0.423451   0.414271   0.404487   0.394121   0.383196   0.371730   0.359742   0.347247   0.334259   0.320794   0.306861   0.292472   0.277633   0.262353   0.246633   0.230475   0.213882   0.196853   0.179391   0.161495   0.143167   0.124408   0.105217   0.085596   0.065544   0.045063   0.024152   0.002816   -0.018941   -0.041111   -0.063681   -0.086639   -0.109970   -0.133653   -0.157666   -0.181980   -0.206562   -0.231378   -0.256394   -0.281575   -0.306883   -0.332283   -0.357736   -0.383204   -0.408646   -0.434023   -0.459293   -0.484416   -0.509359   -0.534101   -0.558630   -0.582938   -0.607027   -0.630910   -0.654611   -0.678172   -0.701648   -0.725098   -0.748580   -0.772154   -0.795883   -0.819829   -0.844056   -0.868631   -0.893621   -0.919093   -0.945113   -0.971732   -0.998980   -1.026873   -1.055420   -1.084612   -1.114422   -1.144802   -1.175673   -1.206947   -1.238534   -1.270341   -1.302276   -1.334249   -1.366176   -1.397984   -1.429614   -1.461009   -1.492127   -1.522936   -1.553419   
0.465306   0.468151   0.470609   0.472584   0.473977   0.474731   0.474778   0.474048   0.472519   0.470184   0.467007   0.462967   0.458054   0.452294   0.445718   0.438352   0.430225   0.421371   0.411821   0.401605   0.390749   0.379278   0.367215   0.354577   0.341383   0.327649   0.313390   0.298617   0.283340   0.267567   0.251301   0.234547   0.217305   0.199579   0.181370   0.162680   0.143509   0.123860   0.103732   0.083128   0.062047   0.040492   0.018462   -0.004040   -0.027008   -0.050433   -0.074302   -0.098603   -0.123319   -0.148428   -0.173905   -0.199720   -0.225837   -0.252220   -0.278831   -0.305631   -0.332583   -0.359646   -0.386779   -0.413940   -0.441087   -0.468175   -0.495159   -0.521996   -0.548648   -0.575086   -0.601298   -0.627274   -0.653014   -0.678531   -0.703849   -0.729015   -0.754088   -0.779130   -0.804205   -0.829378   -0.854717   -0.880291   -0.906168   -0.932421   -0.959122   -0.986345   -1.014165   -1.042642   -1.071817   -1.101710   -1.132333   -1.163680   -1.195727   -1.228423   -1.261688   -1.295425   -1.329537   -1.363925   -1.398490   -1.433131   -1.467754   -1.502276   -1.536630   -1.570754   -1.604597   -1.638122   -1.671311   -1.704165   
0.458678   0.461806   0.464612   0.467020   0.468915   0.470181   0.470731   0.470482   0.469371   0.467381   0.464498   0.460683   0.455917   0.450204   0.443585   0.436089   0.427749   0.418603   0.408690   0.398043   0.386694   0.374669   0.361993   0.348688   0.334773   0.320266   0.305181   0.289530   0.273323   0.256566   0.239262   0.221417   0.203032   0.184111   0.164656   0.144669   0.124152   0.103107   0.081535   0.059438   0.036816   0.013671   -0.009994   -0.034173   -0.058859   -0.084038   -0.109695   -0.135813   -0.162369   -0.189338   -0.216685   -0.244373   -0.272363   -0.300614   -0.329086   -0.357736   -0.386521   -0.415397   -0.444320   -0.473242   -0.502118   -0.530898   -0.559533   -0.587981   -0.616206   -0.644192   -0.671927   -0.699408   -0.726648   -0.753672   -0.780526   -0.807273   -0.833981   -0.860720   -0.887559   -0.914571   -0.941830   -0.969412   -0.997394   -1.025855   -1.054876   -1.084538   -1.114913   -1.146054   -1.177989   -1.210735   -1.244291   -1.278634   -1.313717   -1.349455   -1.385747   -1.422489   -1.459574   -1.496895   -1.534342   -1.571809   -1.609201   -1.646442   -1.683462   -1.720202   -1.756620   -1.792690   -1.828413   -1.863803   