 AeroDyn airfoil file.  Compatible with AeroDyn v13.0. 
 This file was generated automatically by HARP_Opt. 
  Made by JJ
1        Number of airfoil tables in this file
9.99e9   Reynolds number in millions.  For efficiency, make very large if only one table.
0.0      Control Setting
0.0      Stall angle (deg) 
 -1.500000   Zero Cn angle of attack (deg) 
 3.426288   Cn slope for zero lift (dimensionless) 
 1.159200   Cn extrapolated to value at positive stall angle of attack 
 0.003700   Cn at stall value for negative angle of attack 
 0.000000   Angle of attack for minimum CD (deg) 
 0.043900   Minimum CD value 
 -180.000000  0.000000  0.089500  0.000000 
 -175.000000  0.203500  0.098600  0.087200 
 -170.000000  0.370500  0.136700  0.158400 
 -160.000000  0.599200  0.317500  0.262500 
 -155.000000  0.667300  0.423400  0.299400 
 -150.000000  0.706500  0.533100  0.328200 
 -145.000000  0.720500  0.643300  0.350200 
 -140.000000  0.711200  0.750600  0.366400 
 -135.000000  0.682300  0.852500  0.377800 
 -130.000000  0.634700  0.946900  0.385100 
 -125.000000  0.572100  1.032000  0.388800 
 -120.000000  0.496500  1.106600  0.389800 
 -115.000000  0.409700  1.169600  0.388100 
 -110.000000  0.314500  1.220200  0.384300 
 -105.000000  0.212800  1.257700  0.378700 
 -100.000000  0.106400  1.281900  0.371400 
 -95.000000  -0.001900  1.292600  0.362800 
 -90.000000  -0.112000  1.289600  0.352900 
 -85.000000  -0.220300  1.273100  0.341900 
 -80.000000  -0.325700  1.243300  0.329800 
 -75.000000  -0.425600  1.200700  0.316800 
 -70.000000  -0.519900  1.145700  0.302800 
 -65.000000  -0.603900  1.079000  0.287800 
 -60.000000  -0.678500  1.001800  0.272000 
 -55.000000  -0.739200  0.915000  0.255100 
 -50.000000  -0.785900  0.820000  0.237300 
 -45.000000  -0.815700  0.718900  0.218600 
 -40.000000  -0.826900  0.613400  0.198700 
 -35.000000  -0.816700  0.506300  0.177900 
 -30.000000  -0.783100  0.400300  0.155900 
 -25.000000  -0.725200  0.299200  0.132700 
 -24.000000  -0.710300  0.279900  0.128000 
 -23.000000  -0.694400  0.261100  0.123200 
 -22.000000  -0.676700  0.242600  0.118300 
 -21.000000  -0.658900  0.224600  0.113400 
 -20.000000  -0.639300  0.207000  0.108500 
 -19.000000  -0.617900  0.190800  0.102400 
 -18.000000  -0.592700  0.176400  0.094500 
 -17.000000  -0.564700  0.163800  0.084700 
 -16.000000  -0.532900  0.152900  0.073200 
 -15.000000  -0.498400  0.143700  0.060300 
 -14.000000  -0.461100  0.136100  0.046100 
 -13.000000  -0.421900  0.130000  0.030800 
 -12.000000  -0.379900  0.125400  0.014600 
 -11.000000  -0.336000  0.122100  -0.002400 
 -10.000000  -0.290300  0.120200  -0.019900 
 -8.000000  -0.194100  0.120100  -0.056000 
 -6.000000  -0.103600  0.097600  -0.046700 
 -5.500000  -0.084000  0.090600  -0.048200 
 -5.000000  -0.067200  0.084400  -0.049700 
 -4.500000  -0.060700  0.078100  -0.050200 
 -4.000000  -0.050400  0.071700  -0.050800 
 -3.500000  -0.015900  0.065900  -0.051700 
 -3.000000  0.002800  0.061200  -0.052100 
 -2.500000  0.013100  0.057100  -0.051800 
 -2.000000  0.008400  0.051800  -0.049800 
 -1.500000  0.003700  0.048600  -0.041300 
 -1.000000  0.033600  0.047100  -0.043800 
 -0.500000  0.068100  0.046100  -0.048700 
 0.000000  0.127900  0.043900  -0.053500 
 0.500000  0.198800  0.044000  -0.060100 
 1.000000  0.272500  0.044300  -0.067000 
 1.500000  0.344400  0.044700  -0.073100 
 2.000000  0.414400  0.044900  -0.077900 
 2.500000  0.479700  0.044900  -0.080800 
 3.000000  0.541300  0.044800  -0.082800 
 3.500000  0.602000  0.044500  -0.084000 
 4.000000  0.662700  0.044400  -0.085300 
 4.500000  0.724300  0.044700  -0.087100 
 5.000000  0.784900  0.045000  -0.088400 
 5.500000  0.843700  0.045400  -0.089300 
 6.000000  0.902500  0.045900  -0.090300 
 6.500000  0.958500  0.046800  -0.090800 
 7.000000  1.011700  0.048100  -0.090700 
 7.500000  1.064000  0.049600  -0.090700 
 8.000000  1.113500  0.051800  -0.090300 
 8.500000  1.159200  0.054900  -0.089400 
 9.000000  1.201200  0.059000  -0.088500 
 9.500000  1.244100  0.063500  -0.087900 
 10.000000  1.276800  0.070000  -0.086400 
 10.500000  1.306700  0.077700  -0.084700 
 11.000000  1.330000  0.087500  -0.083100 
 11.500000  1.352400  0.097800  -0.081900 
 12.000000  1.374800  0.109500  -0.081200 
 12.500000  1.394400  0.124100  -0.081200 
 13.000000  1.412100  0.138700  -0.081800 
 13.500000  1.435500  0.153500  -0.082700 
 14.500000  1.481200  0.187300  -0.085600 
 15.000000  1.506400  0.205500  -0.087600 
 15.500000  1.522300  0.224900  -0.090200 
 16.000000  1.539100  0.243300  -0.093000 
 16.500000  1.554900  0.263600  -0.096200 
 17.000000  1.568900  0.283800  -0.099800 
 17.500000  1.585700  0.304000  -0.103600 
 18.000000  1.604400  0.324600  -0.108000 
 19.000000  1.634300  0.365000  -0.115900 
 19.500000  1.649200  0.386400  -0.120500 
 20.500000  1.678100  0.426500  -0.129200 
 21.000000  1.689300  0.445400  -0.132200 
 22.000000  1.708000  0.484100  -0.138000 
 23.000000  1.723900  0.524000  -0.143900 
 24.000000  1.736900  0.564800  -0.149600 
 25.000000  1.747200  0.606500  -0.155300 
 26.000000  1.755600  0.648700  -0.160900 
 28.000000  1.767700  0.734500  -0.171800 
 30.000000  1.777100  0.821200  -0.182400 
 32.000000  1.787300  0.907300  -0.192500 
 35.000000  1.800400  1.034100  -0.207200 
 40.000000  1.776100  1.234800  -0.230300 
 45.000000  1.698700  1.414300  -0.252100 
 50.000000  1.577300  1.564100  -0.272600 
 55.000000  1.420500  1.676800  -0.291900 
 60.000000  1.234800  1.746900  -0.310000 
 65.000000  1.032300  1.770600  -0.326900 
 70.000000  0.821300  1.745700  -0.342700 
 75.000000  0.614100  1.672900  -0.357500 
 80.000000  0.419100  1.557800  -0.371200 
 85.000000  0.249200  1.419100  -0.383800 
 90.000000  0.115700  1.328700  -0.395200 
 95.000000  0.001900  1.331800  -0.405300 
 100.000000  -0.110100  1.320900  -0.414100 
 105.000000  -0.219300  1.295900  -0.421300 
 110.000000  -0.324800  1.257300  -0.426800 
 115.000000  -0.422800  1.205300  -0.430300 
 120.000000  -0.512400  1.140600  -0.431500 
 125.000000  -0.590800  1.063800  -0.429900 
 130.000000  -0.655200  0.976200  -0.425000 
 135.000000  -0.703700  0.878900  -0.416500 
 140.000000  -0.734500  0.773900  -0.403500 
 145.000000  -0.743900  0.663300  -0.385200 
 150.000000  -0.729900  0.549700  -0.360500 
 155.000000  -0.689700  0.436300  -0.328600 
 160.000000  -0.619700  0.327100  -0.287900 
 170.000000  -0.382700  0.140100  -0.173400 
 175.000000  -0.210900  0.098900  -0.095400 
 180.000000  0.000000  0.089500  0.000000 
EOT
