---------TurbSim v2.00.* Profile Input File------------------------
Made up profiles
-------- User-Defined Profiles (Used only with USR wind profile or USRVKM spectral model) -------------------
17               NumUSRz        - Number of Heights
1               StdScale1      - u-component scaling factor for the input standard deviation (USRVKM only)
1               StdScale2      - v-component scaling factor for the input standard deviation (USRVKM only)
1               StdScale3      - w-component scaling factor for the input standard deviation (USRVKM only)
...................................................................................
Height    Wind Speed       Wind --Direction--
 (m)        (m/s)       (deg, cntr-clockwise )
-----------------------------------------------------------------------------------
0.0            0.0            -17.9
10.0            1.7            -15.9
20.0            2.8            -13.9
30.0            3.7            -11.9
40.0            4.5            -9.9
50.0            5.3            -7.9
60.0            6.0            -6.0
70.0            6.7            -4.0
80.0            7.4            -2.0
90.0            8.0            0.0
100.0           8.6            2.0
110.0           9.2            4.0
120.0           9.8            6.0
130.0           10.3            7.9
140.0           10.9            9.9
150.0           11.4            11.9
160.0           12.0            13.9
