/Users/rfeil/work/2_OpenFAST/openfast-distributed_aero_control/build/glue-codes/openfast/openfast RotorSE_FAST_BAR_2010n_noRe.fst