---
---
---
False
  3
"DEFAULT"
---
 9.806649999999999e+00
---
True
True
True
False
True
True
True
True
True
True
True
False
False
False
False
False
False
---
 0.000000000000000e+00
 0.000000000000000e+00
 0.000000000000000e+00
 0.000000000000000e+00
 0.000000000000000e+00
 0.000000000000000e+00
 0.000000000000000e+00
 1.210000000000000e+01
 0.000000000000000e+00
 0.000000000000000e+00
 0.000000000000000e+00
 0.000000000000000e+00
 0.000000000000000e+00
 0.000000000000000e+00
 0.000000000000000e+00
 0.000000000000000e+00
 0.000000000000000e+00
---
  3
 6.300000000000000e+01
 1.500000000000000e+00
-2.500000000000000e+00
-2.500000000000000e+00
-2.500000000000000e+00
 0.000000000000000e+00
 0.000000000000000e+00
 0.000000000000000e+00
 0.000000000000000e+00
-5.019100000000000e+00
 1.912000000000000e+00
-5.000000000000000e+00
 1.900000000000000e+00
 0.000000000000000e+00
 1.750000000000000e+00
-3.095280000000000e+00
 0.000000000000000e+00
 2.233360000000000e+00
 1.962560000000000e+00
 9.000000000000000e+01
 0.000000000000000e+00
 0.000000000000000e+00
 0.000000000000000e+00
 0.000000000000000e+00
 0.000000000000000e+00
---
 0.000000000000000e+00
 0.000000000000000e+00
 0.000000000000000e+00
 5.678000000000000e+04
 1.159260000000000e+05
 5.341160000000000e+02
 2.400000000000000e+05
 2.607890000000000e+06
 0.000000000000000e+00
 0.000000000000000e+00
 0.000000000000000e+00
 0.000000000000000e+00
 0.000000000000000e+00
---
 17
"RotorSE_FAST_5MW_ElastoDyn_blade.dat"
"RotorSE_FAST_5MW_ElastoDyn_blade.dat"
"RotorSE_FAST_5MW_ElastoDyn_blade.dat"
---
  0
 0.000000000000000e+00
 0.000000000000000e+00
 0.000000000000000e+00
 0.000000000000000e+00
 0.000000000000000e+00
 0.000000000000000e+00
 0.000000000000000e+00
---
 1.000000000000000e+02
 9.700000000000000e+01
 8.676370000000000e+08
 6.215000000000000e+06
---
False
"unused"
---
 20
"RotorSE_FAST_5MW_ElastoDyn_tower.dat"
---
True
  1
True
"ES10.3E2"
 0.000000000000000e+00
  1
  0
         28    TwrGagNd    - List of tower nodes that have strain gages [1 to TwrNodes] (-) [unused if NTwGages=0]
  3
          5,           9,          13    BldGagNd    - List of blade nodes that have strain gages [1 to BldNodes] (-) [unused if NBlGages=0]
Outlist
"Azimuth, BldPitch1, GenSpeed, IPDefl1, LSSGagMya, LSSGagMza, OoPDefl1, RootFxb1, RootFyb1, RootFzb1, RootMxb1, RootMyb1, RootMzb1, RotSpeed, RotTorq, Spn2MLxb1, Spn2MLyb1, TTDspFA, TTDspSS, TTDspTwst, TwrBsFxt, TwrBsFyt, TwrBsFzt, TwrBsMxt, TwrBsMyt, TwrBsMzt, TwstDefl1, YawBrFxp, YawBrFyp, YawBrFzp, YawBrMxp, YawBrMyp, YawBrMzp"
END
